8
Lattice="5.64 0.0 0.0 0.0 5.64 0.0 0.0 0.0 5.64" Properties=species:S:1:pos:R:3:dft_forces:R:3 dft_energy=-27.035127799332745 dft_stress="-0.004783275999053426 -0.004783275999053416 -0.004783275999053422 1.0800096722131524e-19 -2.740042417777791e-19 -2.0450471036772005e-19" pbc="T T T"
Na       0.00000000       0.00000000       0.00000000       0.00000000       0.00000000       0.00000000       0.00000000       0.00000000       0.00000000
Cl       2.82000000       0.00000000       0.00000000       0.00000000       0.00000000       0.00000000       0.00000000       0.00000000       0.00000000
Na       0.00000000       2.82000000       2.82000000       0.00000000      -0.00000000      -0.00000000       0.00000000      -0.00000000      -0.00000000
Cl       2.82000000       2.82000000       2.82000000      -0.00000000      -0.00000000       0.00000000      -0.00000000      -0.00000000       0.00000000
Na       2.82000000       0.00000000       2.82000000       0.00000000       0.00000000      -0.00000000       0.00000000       0.00000000      -0.00000000
Cl       0.00000000       0.00000000       2.82000000      -0.00000000       0.00000000       0.00000000      -0.00000000       0.00000000       0.00000000
Na       2.82000000       2.82000000       0.00000000      -0.00000000       0.00000000      -0.00000000      -0.00000000       0.00000000      -0.00000000
Cl       0.00000000       2.82000000       0.00000000      -0.00000000       0.00000000      -0.00000000      -0.00000000       0.00000000      -0.00000000
8
Lattice="5.64 0.0 0.0 0.0 5.64 0.0 0.0 0.0 5.64" Properties=species:S:1:pos:R:3:dft_forces:R:3 dft_energy=-27.034896907052207 dft_stress="-0.004784496229505577 -0.004793411819987574 -0.0047855917348398926 7.029541832664442e-07 3.548069351404224e-07 6.575684530166678e-07" pbc="T T T"
Na       0.00124690       0.00391954       0.00297262      -0.00189584      -0.00958447      -0.00780403      -0.00189584      -0.00958447      -0.00780403
Cl       2.82041775      -0.00059359      -0.00108448      -0.00008242      -0.00430859       0.00079582      -0.00008242      -0.00430859       0.00079582
Na       0.00180732       2.82298136       2.82316615      -0.00536834      -0.00812606      -0.00691854      -0.00536834      -0.00812606      -0.00691854
Cl       2.81860026       2.81853489       2.82005323       0.00479406       0.01149803       0.00067953       0.00479406       0.01149803       0.00067953
Na       2.82071352       0.00814158       2.81856713      -0.00387622      -0.01858173       0.00149600      -0.00387622      -0.01858173       0.00149600
Cl      -0.00211419      -0.00357673       2.81844051       0.00609966       0.01424590       0.00678686       0.00609966       0.01424590       0.00678686
Na       2.82204155       2.81429554       0.00116447      -0.00427679       0.01148423      -0.00237510      -0.00427679       0.01148423      -0.00237510
Cl      -0.00065740       2.81958913      -0.00121527       0.00460589       0.00337271       0.00733946       0.00460589       0.00337271       0.00733946
